case14_SE.m
function mpc = case14_SE
%CASE14_SE

%% MATPOWER Case Format : Version 2
mpc.version = '2';

%%-----  Power Flow Data  -----%%
%% system MVA base
mpc.baseMVA = 100;

%% bus data
%	bus_i	type	Pd	Qd	Gs	Bs	area	Vm	Va	baseKV	zone	Vmax	Vmin
mpc.bus = [
	1	3	0	0	0	0	1	1.06	0	0	1	1.06	0.94;
	2	2	21.7	12.7	0	0	1	1.045	-4.07543145	0	1	1.06	0.94;
	3	2	94.2	19	0	0	1	1.01	-9.7962762	0	1	1.06	0.94;
	4	1	47.8	-3.9	0	0	1	1.01961355	-8.71582356	0	1	1.06	0.94;
	5	1	7.6	1.6	0	0	1	1.02132303	-7.47446902	0	1	1.06	0.94;
	6	2	11.2	7.5	0	0	1	1.07	-12.6250423	0	1	1.06	0.94;
	7	1	0	0	0	0	1	1.06291663	-11.2111845	0	1	1.06	0.94;
	8	2	0	0	0	0	1	1.09	-10.4715803	0	1	1.06	0.94;
	9	1	29.5	16.6	0	19	1	1.05779796	-12.9807966	0	1	1.06	0.94;
	10	1	9	5.8	0	0	1	1.05260706	-13.2030827	0	1	1.06	0.94;
	11	1	3.5	1.8	0	0	1	1.05781734	-13.0438031	0	1	1.06	0.94;
	12	1	6.1	1.6	0	0	1	1.05526997	-13.4532202	0	1	1.06	0.94;
	13	1	13.5	5.8	0	0	1	1.0507294	-13.5093372	0	1	1.06	0.94;
	14	1	14.9	5	0	0	1	1.03677212	-14.2085787	0	1	1.06	0.94;
];

%%  PMU voltage data (confidence intervals around measurements)
%	bus_i	VR_MAX	VR_MIN	VI_MAX	VI_MIN
mpc.Vpmu = [
	6	1.04486	1.04343	-0.233705	-0.234036;
	8	1.07185	1.07185	-0.198105	-0.198105;
	11	1.03052	1.03052	-0.238745	-0.238745;
	13	1.02166	1.02166	-0.245454	-0.245454;
];

%% PMU current injection data (confidence intervals around measurements)
%	bus_i	IR_MAX	IR_MIN	II_MAX	II_MIN
mpc.Ipmu = [
	6	-0.111221	-0.111371	-0.0179702	-0.0179954;
	8	0.0485573	0.0485573	-0.165842	-0.165842;
	11	-0.0283928	-0.0283928	0.0240447	0.0240447;
	13	-0.112032	-0.112032	0.0836864	0.0836864;
];

%% RTU injection data (confidence intervals around measurements)
%	bus_i	P_MIN	P_MAX	Q_MIN	Q_MAX	V_MIN	V_MAX
mpc.RTU = [
	1	  1.86548	2.01314464	-0.100916	-0.0943028323	1.05589757	1.06351656;
	2	  0.14438	0.156001798	 0.217403	0.233255859	1.0412663	1.04871951;
	3	-0.678196	-0.634452273	-0.0650787	-0.0610883337	1.00659653	1.01342999;
	4	-0.495702	-0.462611566	0.0376149	0.0402204295	1.01630189	1.02362428;
	5	-0.0787852	-0.0732409693	-0.0165229	-0.0154846142	1.0178296	1.02472542;
	9	-0.305589	-0.285942217	-0.171523	-0.160788048	1.05416216	1.06126647;
	10	-0.0930296	-0.0870125789	-0.0599303	-0.0560305129	1.04876085	1.05579115;
	12	-0.0628771	-0.0588619695	-0.0166337	-0.0154457259	1.05114545	1.05882709;
	14	-0.154476	-0.143893165	-0.0516191	-0.0484089164	1.03352761	1.04015892;
];

%% generator data
%	bus	Pg	Qg	Qmax	Qmin	Vg	mBase	status	Pmax	Pmin	Pc1	Pc2	Qc1min	Qc1max	Qc2min	Qc2max	ramp_agc	ramp_10	ramp_30	ramp_q	apf
mpc.gen = [
	1	194.296693	-9.73154735	10	0	1.06	100	1	332.4	0	0	0	0	0	0	0	0	0	0	0	0;
	2	36.72	35.333684	50	-40	1.045	100	1	140	0	0	0	0	0	0	0	0	0	0	0	0;
	3	28.74	12.6919996	40	0	1.01	100	1	100	0	0	0	0	0	0	0	0	0	0	0	0;
	6	0	11.9805399	24	-6	1.07	100	1	100	0	0	0	0	0	0	0	0	0	0	0	0;
	8	8.49	16.8137369	24	-6	1.09	100	1	100	0	0	0	0	0	0	0	0	0	0	0	0;
];

%% branch data
%	fbus	tbus	r	x	b	rateA	rateB	rateC	ratio	angle	status	angmin	angmax	Pf	Qf	Pt	Qt
mpc.branch = [
	1	2	0.01938	0.05917	0.0528	0	0	0	0	0	1	-360	360	129.5059	-13.7780	-126.5929	16.8225;
	1	5	0.05403	0.22304	0.0492	0	0	0	0	0	1	-360	360	64.7908	4.0464	-62.7499	-0.9515;
	2	3	0.04699	0.19797	0.0438	0	0	0	0	0	1	-360	360	55.0575	5.6704	-53.7252	-4.6827;
	2	4	0.05811	0.17632	0.034	0	0	0	0	0	1	-360	360	49.1604	-1.0316	-47.8740	1.3111;
	2	5	0.05695	0.17388	0.0346	0	0	0	0	0	1	-360	360	37.3950	1.1724	-36.6608	-2.6247;
	3	4	0.06701	0.17103	0.0128	0	0	0	0	0	1	-360	360	-11.7348	-1.6253	11.8259	0.5395;
	4	5	0.01335	0.04211	0	0	0	0	0	0	1	-360	360	-49.7063	12.1994	50.0427	-11.1384;
	4	7	0	0.20912	0	0	0	0	0.978	0	1	-360	360	23.0714	-9.6513	-23.0714	10.8546;
	4	9	0	0.55618	0	0	0	0	0.969	0	1	-360	360	14.8830	-0.4987	-14.8830	1.6126;
	5	6	0	0.25202	0	0	0	0	0.932	0	1	-360	360	41.7680	13.1145	-41.7680	-9.0923;
	6	11	0.09498	0.1989	0	0	0	0	0	0	1	-360	360	5.9412	3.7319	-5.9003	-3.6464;
	6	12	0.12291	0.25581	0	0	0	0	0	0	1	-360	360	7.6064	2.5527	-7.5373	-2.4089;
	6	13	0.06615	0.13027	0	0	0	0	0	0	1	-360	360	17.0204	7.2883	-16.8223	-6.8982;
	7	8	0	0.17615	0	0	0	0	0	0	1	-360	360	-8.4900	-16.2877	8.4900	16.8137;
	7	9	0	0.11001	0	0	0	0	0	0	1	-360	360	31.5614	5.4331	-31.5614	-4.4344;
	9	10	0.03181	0.0845	0	0	0	0	0	0	1	-360	360	6.6234	4.0147	-6.6064	-3.9694;
	9	14	0.12711	0.27038	0	0	0	0	0	0	1	-360	360	10.3210	3.4669	-10.1863	-3.1805;
	10	11	0.08205	0.19207	0	0	0	0	0	0	1	-360	360	-2.3936	-1.8306	2.4003	1.8464;
	12	13	0.22092	0.19988	0	0	0	0	0	0	1	-360	360	1.4373	0.8089	-1.4319	-0.8040;
	13	14	0.17093	0.34802	0	0	0	0	0	0	1	-360	360	4.7543	1.9022	-4.7137	-1.8195;
];

%%-----  OPF Data  -----%%
%% generator cost data
%	1	startup	shutdown	n	x1	y1	...	xn	yn
%	2	startup	shutdown	n	c(n-1)	...	c0
mpc.gencost = [
	2	0	0	3	0.0430292599	20	0;
	2	0	0	3	0.25	20	0;
	2	0	0	3	0.01	40	0;
	2	0	0	3	0.01	40	0;
	2	0	0	3	0.01	40	0;
];

%% bus names
mpc.bus_name = {
	'Bus 1     HV';
	'Bus 2     HV';
	'Bus 3     HV';
	'Bus 4     HV';
	'Bus 5     HV';
	'Bus 6     LV';
	'Bus 7     ZV';
	'Bus 8     TV';
	'Bus 9     LV';
	'Bus 10    LV';
	'Bus 11    LV';
	'Bus 12    LV';
	'Bus 13    LV';
	'Bus 14    LV';
};
